SUMMARY OF JOB INFORMATION
  STEP      INC     ATT  ITRS     TOT TIME     STEP TIME      INC TIME
     1          1     1     1  0.100000E-01  0.100000E-01  0.100000E-01
     2          1     1     4  0.110000E-01  0.100000E-02  0.100000E-02
     2          2     1     4  0.120000E-01  0.200000E-02  0.100000E-02
     2          3     1     9  0.135000E-01  0.350000E-02  0.150000E-02
     2          4     1     9  0.150000E-01  0.500000E-02  0.150000E-02
     2          5     1     8  0.165000E-01  0.650000E-02  0.150000E-02
     2          6     1     8  0.180000E-01  0.800000E-02  0.150000E-02
     2          7     1     7  0.195000E-01  0.950000E-02  0.150000E-02
     2          8     1     8  0.210000E-01  0.110000E-01  0.150000E-02
     2          9     1     7  0.225000E-01  0.125000E-01  0.150000E-02
     2         10     1     7  0.240000E-01  0.140000E-01  0.150000E-02
     2         11     1     8  0.255000E-01  0.155000E-01  0.150000E-02
